Info: SIMULATION PARAMETERS:
Info: TIMESTEP               2
Info: NUMBER OF STEPS        0
Info: STEPS PER CYCLE        10
Info: FIRST LDB TIMESTEP     50
Info: HOM BACKGROUND SCALING 1
Info: MAX SELF PARTITIONS    50
Info: MAX PAIR PARTITIONS    20
Info: SELF PARTITION ATOMS   125
Info: PAIR PARTITION ATOMS   200
Info: PAIR2 PARTITION ATOMS  400
Info: MIN ATOMS PER PATCH    100
Info: INITIAL TEMPERATURE    310
Info: CENTER OF MASS MOVING INITIALLY? NO
Info: DIELECTRIC             1
Info: EXCLUDE                SCALED ONE-FOUR
Info: 1-4 SCALE FACTOR       1
Info: DCD FILENAME           ubq_ww_pcv.dcd
Info: DCD FREQUENCY          500
Info: DCD FIRST STEP         500
Info: XST FILENAME           ubq_ww_pcv.xst
Info: XST FREQUENCY          500
Info: NO VELOCITY DCD OUTPUT
Info: OUTPUT FILENAME        ubq_ww_pcv
Info: BINARY OUTPUT FILES WILL BE USED
Info: RESTART FILENAME       ubq_ww_pcv.restart
Info: RESTART FREQUENCY      500
Info: BINARY RESTART FILES WILL BE USED
Info: SWITCHING ACTIVE
Info: SWITCHING ON           10
Info: SWITCHING OFF          12
Info: PAIRLIST DISTANCE      13.5
Info: PAIRLIST SHRINK RATE   0.01
Info: PAIRLIST GROW RATE     0.01
Info: PAIRLIST TRIGGER       0.3
Info: PAIRLISTS PER CYCLE    2
Info: PAIRLISTS ENABLED
Info: MARGIN                 0
Info: HYDROGEN GROUP CUTOFF  2.5
Info: PATCH DIMENSION        16
Info: ENERGY OUTPUT STEPS    100
Info: CROSSTERM ENERGY INCLUDED IN DIHEDRAL
Info: TIMING OUTPUT STEPS    1000
Info: PRESSURE OUTPUT STEPS  100
Info: FIXED ATOMS ACTIVE
Info: SMD ACTIVE
Info: SMD VELOCITY    0.005 ANGSTROM/TIMESTEP
Info: SMD DIRECTION   0.352418 0.402121 0.845044
Info: SMD K   7
Info: SMD OUTPUT FREQUENCY   10 TIMESTEPS
Info: SMD FILE ../common/ubq_ww_eq.ref
Info: USING VERLET I (r-RESPA) MTS SCHEME.
Info: C1 SPLITTING OF LONG RANGE ELECTROSTATICS
Info: PLACING ATOMS IN PATCHES BY HYDROGEN GROUPS
Info: RIGID BONDS TO HYDROGEN : ALL
Info:         ERROR TOLERANCE : 1e-08
Info:          MAX ITERATIONS : 100
Info: RIGID WATER USING SETTLE ALGORITHM
Info: RANDOM NUMBER SEED     1192831982
Info: USE HYDROGEN BONDS?    NO
Info: COORDINATE PDB         ../common/ubq_ww_eq.pdb
Info: STRUCTURE FILE         ../common/ubq.psf
Info: PARAMETER file: CHARMM format!
Info: PARAMETERS             ../common/par_all27_prot_lipid.inp
Info: USING ARITHMETIC MEAN TO COMBINE L-J SIGMA PARAMETERS
Info: SUMMARY OF PARAMETERS:
Info: 180 BONDS
Info: 447 ANGLES
Info: 566 DIHEDRAL
Info: 46 IMPROPER
Info: 6 CROSSTERM
Info: 119 VDW
Info: 0 VDW_PAIRS
Info: STRUCTURE SUMMARY:
Info: 1231 ATOMS
Info: 1237 BONDS
Info: 2257 ANGLES
Info: 3293 DIHEDRALS
Info: 204 IMPROPERS
Info: 74 CROSSTERMS
Info: 0 EXCLUSIONS
Info: 1 FIXED ATOMS
Info: 629 RIGID BONDS
Info: 0 RIGID BONDS BETWEEN FIXED ATOMS
Info: 3061 DEGREES OF FREEDOM
Info: 602 HYDROGEN GROUPS
Info: 0 HYDROGEN GROUPS WITH ALL ATOMS FIXED
Info: TOTAL MASS = 8564.87 amu
Info: TOTAL CHARGE = 1.00955e-06 e
Info: REMOVING COM VELOCITY 0.0657669 0.349129 0.194747
Info: NONBONDED TABLE R-SQUARED SPACING: 0.0625
Info: NONBONDED TABLE SIZE: 769 POINTS
Info: 1 SMD ATOMS
TCL: Running for 20000 steps
ETITLE: TS BOND ANGLE DIHED IMPRP ELECT VDW BOUNDARY MISC KINETIC TOTAL TEMP TOTAL2 TOTAL3 TEMPAVG
ENERGY: 0 249.5865 670.0924 341.5862 43.8538 -1793.3050 -315.9521 0.0000 0.0000 904.9622 100.8240 297.5483 112.6831 112.6831 297.5483
ENERGY: 4000 355.6555 934.0170 441.1108 61.1285 -2483.9440 -140.2147 0.0000 0.0000 1197.6966 365.4496 393.7983 380.4156 377.8419 411.7062
ENERGY: 8000 360.8283 1061.5094 492.6304 65.6035 -2358.8093 -114.0653 0.0000 0.0000 1549.7860 1057.4830 509.5640 1073.9767 1072.8638 510.2022
ENERGY: 12000 389.1544 1252.6822 477.2617 55.3290 -2385.2574 -103.9153 0.0000 0.0000 1820.4396 1505.6942 598.5540 1524.6405 1526.5108 597.9653
ENERGY: 16000 454.4377 1218.0040 546.8901 99.1328 -2419.1860 4.2396 0.0000 0.0000 1826.8293 1730.3475 600.6549 1752.0300 1751.5488 599.1399
ENERGY: 20000 447.6948 1365.8284 475.8401 76.1850 -2203.8708 -59.0843 0.0000 0.0000 1949.9298 2052.5230 641.1299 2075.5307 2075.1569 637.5142
