Info: SIMULATION PARAMETERS:
Info: TIMESTEP               1
Info: NUMBER OF STEPS        700
Info: STEPS PER CYCLE        10
Info: FIRST LDB TIMESTEP     50
Info: HOM BACKGROUND SCALING 1
Info: MAX SELF PARTITIONS    50
Info: MAX PAIR PARTITIONS    20
Info: SELF PARTITION ATOMS   125
Info: PAIR PARTITION ATOMS   200
Info: PAIR2 PARTITION ATOMS  400
Info: MIN ATOMS PER PATCH    100
Info: VELOCITY FILE          ../04_consta/300.vel
Info: CENTER OF MASS MOVING INITIALLY? NO
Info: DIELECTRIC             1
Info: EXCLUDE                SCALED ONE-FOUR
Info: 1-4 SCALE FACTOR       1
Info: NO DCD TRAJECTORY OUTPUT
Info: XST FILENAME           ubi0.2a.const.xst
Info: XST FREQUENCY          100
Info: NO VELOCITY DCD OUTPUT
Info: OUTPUT FILENAME        ubi0.2a.const
Info: RESTART FILENAME       ubi0.2a.const.restart
Info: RESTART FREQUENCY      100
Info: BINARY RESTART FILES WILL BE USED
Info: SWITCHING ACTIVE
Info: SWITCHING ON           10
Info: SWITCHING OFF          12
Info: PAIRLIST DISTANCE      13.5
Info: PAIRLIST SHRINK RATE   0.01
Info: PAIRLIST GROW RATE     0.01
Info: PAIRLIST TRIGGER       0.3
Info: PAIRLISTS PER CYCLE    2
Info: PAIRLISTS ENABLED
Info: MARGIN                 0
Info: HYDROGEN GROUP CUTOFF  2.5
Info: PATCH DIMENSION        16
Info: CROSSTERM ENERGY INCLUDED IN DIHEDRAL
Info: TIMING OUTPUT STEPS    50
Info: USING VERLET I (r-RESPA) MTS SCHEME.
Info: C1 SPLITTING OF LONG RANGE ELECTROSTATICS
Info: PLACING ATOMS IN PATCHES BY HYDROGEN GROUPS
Info: RANDOM NUMBER SEED     1192662502
Info: USE HYDROGEN BONDS?    NO
Info: COORDINATE PDB         ../common/ubiquitin.pdb
Info: STRUCTURE FILE         ../common/ubiquitin.psf
Info: PARAMETER file: CHARMM format!
Info: PARAMETERS             ../common/par_all27_prot_lipid.inp
Info: USING ARITHMETIC MEAN TO COMBINE L-J SIGMA PARAMETERS
Info: BINARY COORDINATES     ../04_consta/ubi0.2a.const.restart.coor
Info: FIRST TIMESTEP         700
Info: SUMMARY OF PARAMETERS:
Info: 180 BONDS
Info: 447 ANGLES
Info: 566 DIHEDRAL
Info: 46 IMPROPER
Info: 6 CROSSTERM
Info: 119 VDW
Info: 0 VDW_PAIRS
Info: STRUCTURE SUMMARY:
Info: 1231 ATOMS
Info: 1237 BONDS
Info: 2257 ANGLES
Info: 3293 DIHEDRALS
Info: 204 IMPROPERS
Info: 74 CROSSTERMS
Info: 0 EXCLUSIONS
Info: 3690 DEGREES OF FREEDOM
Info: 602 HYDROGEN GROUPS
Info: TOTAL MASS = 8564.87 amu
Info: TOTAL CHARGE = 1.0021e-06 e
Info: REMOVING COM VELOCITY 1.54224e-05 1.66222e-05 2.37341e-06
Info: NONBONDED TABLE R-SQUARED SPACING: 0.0625
Info: NONBONDED TABLE SIZE: 769 POINTS
TCL: Running for 600 steps
ETITLE: TS BOND ANGLE DIHED IMPRP ELECT VDW BOUNDARY MISC KINETIC TOTAL TEMP TOTAL2 TOTAL3 TEMPAVG
ENERGY: 700 455.4533 706.2410 378.2395 49.5938 -2644.7020 -236.7862 0.0000 0.0000 1106.8602 -185.1004 301.8956 -176.8691 -176.8691 301.8956
ENERGY: 820 445.2267 721.0289 370.8549 47.5930 -2625.0087 -217.7414 0.0000 0.0000 1072.1674 -185.8791 292.4331 -177.8560 -177.0224 292.4331
ENERGY: 940 444.4429 717.7077 350.8713 57.1026 -2649.9553 -228.4627 0.0000 0.0000 1123.2554 -185.0381 306.3674 -176.8226 -176.7593 306.3674
ENERGY: 1060 452.5617 728.6648 365.8081 44.4739 -2637.6637 -227.1212 0.0000 0.0000 1089.3814 -183.8950 297.1283 -175.5010 -176.7817 297.1283
ENERGY: 1180 421.3938 726.6238 366.6571 48.9364 -2647.5390 -221.4722 0.0000 0.0000 1120.1179 -185.2822 305.5116 -177.2545 -177.0209 305.5116
ENERGY: 1300 433.7620 690.9073 362.6545 50.7102 -2666.2354 -191.3557 0.0000 0.0000 1133.8196 -185.7375 309.2488 -177.8834 -176.9453 309.2488
