Info: SIMULATION PARAMETERS:
Info: TIMESTEP               2
Info: NUMBER OF STEPS        0
Info: STEPS PER CYCLE        10
Info: PERIODIC CELL BASIS 1  50.682 0 0
Info: PERIODIC CELL BASIS 2  0 52.371 0
Info: PERIODIC CELL BASIS 3  0 0 56.265
Info: PERIODIC CELL CENTER   30.8417 29.1532 17.9016
Info: WRAPPING ALL CLUSTERS AROUND PERIODIC BOUNDARIES ON OUTPUT.
Info: FIRST LDB TIMESTEP     50
Info: LAST LDB TIMESTEP     -1
Info: HOM BACKGROUND SCALING 1
Info: PME BACKGROUND SCALING 1
Info: MIN ATOMS PER PATCH    40
Info: INITIAL TEMPERATURE    310
Info: CENTER OF MASS MOVING INITIALLY? NO
Info: DIELECTRIC             1
Info: EXCLUDE                SCALED ONE-FOUR
Info: 1-4 ELECTROSTATICS SCALED BY 1
Info: MODIFIED 1-4 VDW PARAMETERS WILL BE USED
Info: DCD FILENAME           ubq_wb_eq.dcd
Info: DCD FREQUENCY          250
Info: DCD FIRST STEP         250
Info: DCD FILE WILL CONTAIN UNIT CELL DATA
Info: XST FILENAME           ubq_wb_eq.xst
Info: XST FREQUENCY          250
Info: NO VELOCITY DCD OUTPUT
Info: NO FORCE DCD OUTPUT
Info: OUTPUT FILENAME        ubq_wb_eq
Info: BINARY OUTPUT FILES WILL BE USED
Info: RESTART FILENAME       ubq_wb_eq.restart
Info: RESTART FREQUENCY      500
Info: BINARY RESTART FILES WILL BE USED
Info: SWITCHING ACTIVE
Info: SWITCHING ON           10
Info: SWITCHING OFF          12
Info: PAIRLIST DISTANCE      14
Info: PAIRLIST SHRINK RATE   0.01
Info: PAIRLIST GROW RATE     0.01
Info: PAIRLIST TRIGGER       0.3
Info: PAIRLISTS PER CYCLE    2
Info: PAIRLISTS ENABLED
Info: MARGIN                 0.495
Info: HYDROGEN GROUP CUTOFF  2.5
Info: PATCH DIMENSION        16.995
Info: ENERGY OUTPUT STEPS    100
Info: CROSSTERM ENERGY INCLUDED IN DIHEDRAL
Info: TIMING OUTPUT STEPS    1000
Info: PRESSURE OUTPUT STEPS  100
Info: LANGEVIN DYNAMICS ACTIVE
Info: LANGEVIN TEMPERATURE   310
Info: LANGEVIN USING BBK INTEGRATOR
Info: LANGEVIN DAMPING COEFFICIENT IS 1 INVERSE PS
Info: LANGEVIN DYNAMICS NOT APPLIED TO HYDROGENS
Info: LANGEVIN PISTON PRESSURE CONTROL ACTIVE
Info:        TARGET PRESSURE IS 1.01325 BAR
Info:     OSCILLATION PERIOD IS 100 FS
Info:             DECAY TIME IS 50 FS
Info:     PISTON TEMPERATURE IS 310 K
Info:       PRESSURE CONTROL IS GROUP-BASED
Info:    INITIAL STRAIN RATE IS 0 0 0
Info:       CELL FLUCTUATION IS ISOTROPIC
Info: PARTICLE MESH EWALD (PME) ACTIVE
Info: PME TOLERANCE               1e-06
Info: PME EWALD COEFFICIENT       0.257952
Info: PME INTERPOLATION ORDER     4
Info: PME GRID DIMENSIONS         54 54 60
Info: PME MAXIMUM GRID SPACING    1
Info: FULL ELECTROSTATIC EVALUATION FREQUENCY      2
Info: USING VERLET I (r-RESPA) MTS SCHEME.
Info: C1 SPLITTING OF LONG RANGE ELECTROSTATICS
Info: PLACING ATOMS IN PATCHES BY HYDROGEN GROUPS
Info: RIGID BONDS TO HYDROGEN : ALL
Info:         ERROR TOLERANCE : 1e-08
Info:          MAX ITERATIONS : 100
Info: RIGID WATER USING SETTLE ALGORITHM
Info: RANDOM NUMBER SEED     1604707672
Info: USE HYDROGEN BONDS?    NO
Info: COORDINATE PDB         solvate.pdb
Info: STRUCTURE FILE         solvate.psf
Info: PARAMETER file: CHARMM format!
Info: PARAMETERS             ./toppar_c36_jul20/par_all36_prot.prm
Info: PARAMETERS             ./toppar_c36_jul20/param19.inp
Info: USING ARITHMETIC MEAN TO COMBINE L-J SIGMA PARAMETERS
Info: SUMMARY OF PARAMETERS:
Info: 202 BONDS
Info: 560 ANGLES
Info: 758 DIHEDRAL
Info: 78 IMPROPER
Info: 6 CROSSTERM
Info: 71 VDW
Info: 3 VDW_PAIRS
Info: 0 NBTHOLE_PAIRS
Info: STRUCTURE SUMMARY:
Info: 13660 ATOMS
Info: 9523 BONDS
Info: 6400 ANGLES
Info: 3293 DIHEDRALS
Info: 212 IMPROPERS
Info: 74 CROSSTERMS
Info: 0 EXCLUSIONS
Info: 13058 RIGID BONDS
Info: 27922 DEGREES OF FREEDOM
Info: 4745 HYDROGEN GROUPS
Info: 4 ATOMS IN LARGEST HYDROGEN GROUP
Info: 4745 MIGRATION GROUPS
Info: 4 ATOMS IN LARGEST MIGRATION GROUP
Info: TOTAL MASS = 83202.7 amu
Info: TOTAL CHARGE = 1.0021e-06 e
Info: MASS DENSITY = 0.925153 g/cm^3
Info: ATOM DENSITY = 0.0914677 atoms/A^3
Info: ADDED 19187 IMPLICIT EXCLUSIONS
Info: NONBONDED TABLE R-SQUARED SPACING: 0.0625
Info: NONBONDED TABLE SIZE: 769 POINTS
Info: REMOVING COM VELOCITY 0.0559008 -0.0540202 0.0232948
Info: Updated CUDA force table with 4096 elements.
Info: Updated CUDA LJ table with 66 x 66 elements.
Info: Found 213 unique exclusion lists needing 616 bytes
TCL: Minimizing for 100 steps
ETITLE: TS BOND ANGLE DIHED IMPRP ELECT VDW BOUNDARY MISC KINETIC TOTAL TEMP POTENTIAL TOTAL3 TEMPAVG PRESSURE GPRESSURE VOLUME PRESSAVG GPRESSAVG
ENERGY: 0 243.8379 365.6204 706.5914 9.3182 -40150.5361 611443.6874 0.0000 0.0000 0.0000 572618.5192 0.0000 572618.5192 572618.5192 0.0000 813563.6438 805217.0940 149342.3422 813563.6438 805217.0940
ENERGY: 20 49.2195 260.8412 695.8360 9.6513 -40984.9553 3525.0685 0.0000 0.0000 0.0000 -36444.3388 0.0000 -36444.3388 -36444.3388 0.0000 15626.3345 323.8844 149342.3422 15626.3345 323.8844
ENERGY: 40 187.0067 305.1021 690.8068 15.9616 -43989.4964 2560.8333 0.0000 0.0000 0.0000 -40229.7859 0.0000 -40229.7859 -40229.7859 0.0000 13255.7367 -3195.0323 149342.3422 13255.7367 -3195.0323
ENERGY: 60 91.6704 279.8411 688.8239 22.0571 -45689.7291 2300.4687 0.0000 0.0000 0.0000 -42306.8678 0.0000 -42306.8678 -42306.8678 0.0000 12071.1029 -5024.3201 149342.3422 12071.1029 -5024.3201
ENERGY: 80 288.7731 302.3182 688.1286 10.1050 -46753.8764 2240.4380 0.0000 0.0000 0.0000 -43224.1135 0.0000 -43224.1135 -43224.1135 0.0000 11944.6133 -5658.4722 149342.3422 11944.6133 -5658.4722
ENERGY: 100 111.2812 265.4398 682.3594 9.8281 -47984.0119 2334.0324 0.0000 0.0000 0.0000 -44581.0711 0.0000 -44581.0711 -44581.0711 0.0000 11721.5349 -6457.8065 149342.3422 11721.5349 -6457.8065
TCL: Running for 2500 steps
ETITLE: TS BOND ANGLE DIHED IMPRP ELECT VDW BOUNDARY MISC KINETIC TOTAL TEMP POTENTIAL TOTAL3 TEMPAVG PRESSURE GPRESSURE VOLUME PRESSAVG GPRESSAVG
ENERGY: 100 111.2812 265.4398 682.3594 9.8281 -47984.0119 2334.0324 0.0000 0.0000 8642.8122 -35938.2589 311.5293 -44581.0711 -35953.9907 311.5293 -5052.1724 -5023.4349 149342.3422 -5052.1724 -5023.4349
ENERGY: 600 203.3098 599.7286 744.1205 42.6336 -48776.0790 3775.7693 0.0000 0.0000 7895.3583 -35515.1589 284.5874 -43410.5172 -35490.7885 280.5389 -205.6146 -175.7727 134059.9214 -17.9117 -17.7066
ENERGY: 1100 232.1183 626.2665 726.8393 46.3008 -48259.6532 3593.0788 0.0000 0.0000 8045.1523 -34989.8971 289.9867 -43035.0495 -34965.8255 291.5102 -147.2802 -114.0646 132899.8539 -25.0954 -24.8527
ENERGY: 1600 240.0376 627.1542 746.5334 38.8030 -48135.5407 3553.7857 0.0000 0.0000 8264.8462 -34664.3806 297.9056 -42929.2268 -34638.3698 297.6822 -48.3933 -20.5638 132942.8068 -28.5315 -28.1499
ENERGY: 2100 227.0842 689.2468 743.6462 54.0014 -47862.1701 3431.6684 0.0000 0.0000 8346.2480 -34370.2750 300.8397 -42716.5230 -34344.3667 302.9957 -133.9358 -105.0319 132798.4826 -12.2182 -11.6502
ENERGY: 2600 209.9507 687.0159 727.3568 42.9439 -47962.6619 3586.3583 0.0000 0.0000 8440.4761 -34268.5601 304.2361 -42709.0362 -34246.0524 303.2616 292.4297 325.7815 133126.4132 7.3497 7.6620
