Info: SIMULATION PARAMETERS:
Info: TIMESTEP               2
Info: NUMBER OF STEPS        0
Info: STEPS PER CYCLE        10
Info: FIRST LDB TIMESTEP     50
Info: HOM BACKGROUND SCALING 1
Info: MAX SELF PARTITIONS    50
Info: MAX PAIR PARTITIONS    20
Info: SELF PARTITION ATOMS   125
Info: PAIR PARTITION ATOMS   200
Info: PAIR2 PARTITION ATOMS  400
Info: MIN ATOMS PER PATCH    100
Info: INITIAL TEMPERATURE    300
Info: CENTER OF MASS MOVING INITIALLY? NO
Info: DIELECTRIC             1
Info: EXCLUDE                SCALED ONE-FOUR
Info: 1-4 SCALE FACTOR       1
Info: DCD FILENAME           ubq_cooling.dcd
Info: DCD FREQUENCY          500
Info: DCD FIRST STEP         500
Info: XST FILENAME           ubq_cooling.xst
Info: XST FREQUENCY          500
Info: NO VELOCITY DCD OUTPUT
Info: OUTPUT FILENAME        ubq_cooling
Info: BINARY OUTPUT FILES WILL BE USED
Info: RESTART FILENAME       ubq_cooling.restart
Info: RESTART FREQUENCY      500
Info: BINARY RESTART FILES WILL BE USED
Info: SWITCHING ACTIVE
Info: SWITCHING ON           10
Info: SWITCHING OFF          12
Info: PAIRLIST DISTANCE      13.5
Info: PAIRLIST SHRINK RATE   0.01
Info: PAIRLIST GROW RATE     0.01
Info: PAIRLIST TRIGGER       0.3
Info: PAIRLISTS PER CYCLE    2
Info: PAIRLISTS ENABLED
Info: MARGIN                 0
Info: HYDROGEN GROUP CUTOFF  2.5
Info: PATCH DIMENSION        16
Info: ENERGY OUTPUT STEPS    25
Info: CROSSTERM ENERGY INCLUDED IN DIHEDRAL
Info: TIMING OUTPUT STEPS    250
Info: HARMONIC CONSTRAINTS ACTIVE
Info: HARMONIC CONS EXP      2
Info: SPHERICAL BOUNDARY CONDITIONS ACTIVE
Info: RADIUS #1              26
Info: FORCE CONSTANT #1      10
Info: EXPONENT #1            2
Info: SPHERE BOUNDARY CENTER(30.3082, 28.805, 15.354)
Info: TEMPERATURE COUPLING ACTIVE
Info: COUPLING TEMPERATURE   200
Info: USING VERLET I (r-RESPA) MTS SCHEME.
Info: C1 SPLITTING OF LONG RANGE ELECTROSTATICS
Info: PLACING ATOMS IN PATCHES BY HYDROGEN GROUPS
Info: RANDOM NUMBER SEED     1192657360
Info: USE HYDROGEN BONDS?    NO
Info: COORDINATE PDB         ../common/ubq_ws.pdb
Info: STRUCTURE FILE         ../common/ubq_ws.psf
Info: PARAMETER file: CHARMM format!
Info: PARAMETERS             ../common/par_all27_prot_lipid.inp
Info: USING ARITHMETIC MEAN TO COMBINE L-J SIGMA PARAMETERS
Info: BINARY COORDINATES     ../1-2-sphere/ubq_ws_eq.restart.coor
Info: SUMMARY OF PARAMETERS:
Info: 180 BONDS
Info: 447 ANGLES
Info: 556 DIHEDRAL
Info: 46 IMPROPER
Info: 6 CROSSTERM
Info: 119 VDW
Info: 0 VDW_PAIRS
Info: STRUCTURE SUMMARY:
Info: 6682 ATOMS
Info: 4871 BONDS
Info: 4074 ANGLES
Info: 3293 DIHEDRALS
Info: 204 IMPROPERS
Info: 74 CROSSTERMS
Info: 0 EXCLUSIONS
Info: 1985 CONSTRAINTS
Info: 20046 DEGREES OF FREEDOM
Info: 2419 HYDROGEN GROUPS
Info: TOTAL MASS = 41298.8 amu
Info: TOTAL CHARGE = 1.00955e-06 e
Info: REMOVING COM VELOCITY -0.0286611 -0.0598604 0.0841167
Info: NONBONDED TABLE R-SQUARED SPACING: 0.0625
Info: NONBONDED TABLE SIZE: 769 POINTS
TCL: Running for 5000 steps
ETITLE: TS BOND ANGLE DIHED IMPRP ELECT VDW BOUNDARY MISC KINETIC TOTAL TEMP TOTAL2 TOTAL3 TEMPAVG
ENERGY: 0 273.6364 707.9287 314.4623 51.9955 -22919.9872 1648.4841 4.7926 0.0000 5921.2715 -13997.4161 297.2882 -13895.4811 -13895.4811 297.2882
ENERGY: 1000 2191.5020 1695.0708 305.7243 34.8460 -27339.3922 2476.2750 583.9917 0.0000 4977.7789 -15074.2035 249.9184 -14881.9254 -14886.3747 248.1526
ENERGY: 2000 2092.2454 1629.2917 278.5597 43.7129 -27664.1873 2509.1120 552.0872 0.0000 4608.3048 -15950.8736 231.3683 -15770.9197 -15774.2172 230.3987
ENERGY: 3000 2163.0776 1598.9173 288.0041 33.8861 -28108.5590 2525.2153 583.1586 0.0000 4365.9109 -16550.3890 219.1985 -16374.0471 -16379.6652 220.8851
ENERGY: 4000 2065.7481 1598.7129 287.0645 34.5228 -28417.4952 2586.1712 584.3042 0.0000 4305.0612 -16955.9104 216.1434 -16789.1985 -16782.5260 213.8103
ENERGY: 5000 1995.9243 1606.4914 301.1610 32.6853 -28427.7186 2538.8551 559.0313 0.0000 4183.0086 -17210.5615 210.0155 -17046.5225 -17044.9006 208.9058
