Info: SIMULATION PARAMETERS:
Info: TIMESTEP               2
Info: NUMBER OF STEPS        0
Info: STEPS PER CYCLE        10
Info: FIRST LDB TIMESTEP     50
Info: HOM BACKGROUND SCALING 1
Info: MAX SELF PARTITIONS    50
Info: MAX PAIR PARTITIONS    20
Info: SELF PARTITION ATOMS   125
Info: PAIR PARTITION ATOMS   200
Info: PAIR2 PARTITION ATOMS  400
Info: MIN ATOMS PER PATCH    100
Info: VELOCITY FILE          ../1-2-sphere/ubq_ws_eq.restart.vel
Info: CENTER OF MASS MOVING INITIALLY? NO
Info: DIELECTRIC             1
Info: EXCLUDE                SCALED ONE-FOUR
Info: 1-4 SCALE FACTOR       1
Info: NO DCD TRAJECTORY OUTPUT
Info: NO EXTENDED SYSTEM TRAJECTORY OUTPUT
Info: NO VELOCITY DCD OUTPUT
Info: OUTPUT FILENAME        ubq-nve
Info: BINARY OUTPUT FILES WILL BE USED
Info: NO RESTART FILE
Info: SWITCHING ACTIVE
Info: SWITCHING ON           10
Info: SWITCHING OFF          12
Info: PAIRLIST DISTANCE      13.5
Info: PAIRLIST SHRINK RATE   0.01
Info: PAIRLIST GROW RATE     0.01
Info: PAIRLIST TRIGGER       0.3
Info: PAIRLISTS PER CYCLE    2
Info: PAIRLISTS ENABLED
Info: MARGIN                 0
Info: HYDROGEN GROUP CUTOFF  2.5
Info: PATCH DIMENSION        16
Info: ENERGY OUTPUT STEPS    50
Info: CROSSTERM ENERGY INCLUDED IN DIHEDRAL
Info: TIMING OUTPUT STEPS    500
Info: PRESSURE OUTPUT STEPS  50
Info: SPHERICAL BOUNDARY CONDITIONS ACTIVE
Info: RADIUS #1              26
Info: FORCE CONSTANT #1      10
Info: EXPONENT #1            2
Info: SPHERE BOUNDARY CENTER(30.3082, 28.805, 15.354)
Info: USING VERLET I (r-RESPA) MTS SCHEME.
Info: C1 SPLITTING OF LONG RANGE ELECTROSTATICS
Info: PLACING ATOMS IN PATCHES BY HYDROGEN GROUPS
Info: RIGID BONDS TO HYDROGEN : ALL
Info:         ERROR TOLERANCE : 1e-08
Info:          MAX ITERATIONS : 100
Info: RIGID WATER USING SETTLE ALGORITHM
Info: RANDOM NUMBER SEED     1192656458
Info: USE HYDROGEN BONDS?    NO
Info: COORDINATE PDB         ../common/ubq_ws.pdb
Info: STRUCTURE FILE         ../common/ubq_ws.psf
Info: PARAMETER file: CHARMM format!
Info: PARAMETERS             ../common/par_all22_prot_cmap.inp
Info: USING ARITHMETIC MEAN TO COMBINE L-J SIGMA PARAMETERS
Info: BINARY COORDINATES     ../1-2-sphere/ubq_ws_eq.restart.coor
Info: SUMMARY OF PARAMETERS:
Info: 180 BONDS
Info: 447 ANGLES
Info: 452 DIHEDRAL
Info: 566 IMPROPER
Info: 6 CROSSTERM
Info: 119 VDW
Info: 0 VDW_PAIRS
Info: STRUCTURE SUMMARY:
Info: 6682 ATOMS
Info: 4871 BONDS
Info: 4074 ANGLES
Info: 3293 DIHEDRALS
Info: 204 IMPROPERS
Info: 74 CROSSTERMS
Info: 0 EXCLUSIONS
Info: 6080 RIGID BONDS
Info: 13963 DEGREES OF FREEDOM
Info: 2419 HYDROGEN GROUPS
Info: TOTAL MASS = 41298.8 amu
Info: TOTAL CHARGE = 1.00955e-06 e
Info: REMOVING COM VELOCITY 0.00457794 0.0649365 -0.0928829
Info: NONBONDED TABLE R-SQUARED SPACING: 0.0625
Info: NONBONDED TABLE SIZE: 769 POINTS
TCL: Running for 500000 steps
ETITLE: TS BOND ANGLE DIHED IMPRP ELECT VDW BOUNDARY MISC KINETIC TOTAL TEMP TOTAL2 TOTAL3 TEMPAVG
ENERGY: 0 273.6364 707.9287 314.4623 51.9955 -22919.9872 1648.4793 4.7921 0.0000 4382.0264 -15536.6665 315.8542 -15517.6693 -15517.6693 315.8542
ENERGY: 100000 219.4489 714.0571 285.6820 37.4861 -22866.5541 1662.3266 1.6580 0.0000 4410.5515 -15535.3440 317.9103 -15516.8248 -15515.6728 314.9854
ENERGY: 200000 236.3938 723.0163 298.7207 42.7564 -22805.3117 1628.3000 2.1317 0.0000 4340.7404 -15533.2523 312.8783 -15515.6586 -15513.7309 312.2728
ENERGY: 300000 232.1312 706.1103 279.9238 34.7993 -22715.7250 1581.5713 2.9969 0.0000 4345.5498 -15532.6423 313.2250 -15514.1907 -15513.8620 315.4701
ENERGY: 400000 239.1940 697.5896 317.1921 48.8056 -22893.4045 1726.1218 1.7458 0.0000 4332.8290 -15529.9266 312.3081 -15511.1132 -15512.8873 315.9823
ENERGY: 500000 238.8537 647.5558 300.4045 38.5738 -22692.7940 1588.3957 7.2349 0.0000 4343.0873 -15528.6883 313.0475 -15510.7391 -15509.5619 316.8211
