Info: SIMULATION PARAMETERS:
Info: TIMESTEP               2
Info: NUMBER OF STEPS        0
Info: STEPS PER CYCLE        10
Info: FIRST LDB TIMESTEP     50
Info: LAST LDB TIMESTEP     -1
Info: HOM BACKGROUND SCALING 1
Info: MIN ATOMS PER PATCH    40
Info: INITIAL TEMPERATURE    310
Info: CENTER OF MASS MOVING INITIALLY? NO
Info: DIELECTRIC             1
Info: EXCLUDE                SCALED ONE-FOUR
Info: 1-4 ELECTROSTATICS SCALED BY 1
Info: MODIFIED 1-4 VDW PARAMETERS WILL BE USED
Info: DCD FILENAME           ubq_gbis_eq.dcd
Info: DCD FREQUENCY          250
Info: DCD FIRST STEP         250
Info: XST FILENAME           ubq_gbis_eq.xst
Info: XST FREQUENCY          250
Info: NO VELOCITY DCD OUTPUT
Info: NO FORCE DCD OUTPUT
Info: OUTPUT FILENAME        ubq_gbis_eq
Info: BINARY OUTPUT FILES WILL BE USED
Info: RESTART FILENAME       ubq_gbis_eq.restart
Info: RESTART FREQUENCY      500
Info: BINARY RESTART FILES WILL BE USED
Info: SWITCHING ACTIVE
Info: SWITCHING ON           13
Info: SWITCHING OFF          14
Info: PAIRLIST DISTANCE      16
Info: PAIRLIST SHRINK RATE   0.01
Info: PAIRLIST GROW RATE     0.01
Info: PAIRLIST TRIGGER       0.3
Info: PAIRLISTS PER CYCLE    2
Info: PAIRLISTS ENABLED
Info: MARGIN                 0
Info: HYDROGEN GROUP CUTOFF  2.5
Info: PATCH DIMENSION        18.5
Info: ENERGY OUTPUT STEPS    100
Info: CROSSTERM ENERGY INCLUDED IN DIHEDRAL
Info: TIMING OUTPUT STEPS    1000
Info: PRESSURE OUTPUT STEPS  100
Info: GBIS GENERALIZED BORN IMPLICIT SOLVENT ACTIVE
Info: GBIS SOLVENT DIELECTRIC: 78.5
Info: GBIS PROTEIN DIELECTRIC: 1
Info: GBIS COULOMB RADIUS OFFSET: 0.09 Ang
Info: GBIS ION CONCENTRATION: 0.3 M
Info: GBIS DEBYE SCREENING LENGTH: 5.66311 Ang
Info: GBIS DELTA: 1
Info: GBIS BETA: 0.8
Info: GBIS GAMMA: 4.85
Info: GBIS BORN RADIUS CUTOFF: 12 Ang
Info: GBIS MAX BORN RADIUS: 30 Ang
Info: LANGEVIN DYNAMICS ACTIVE
Info: LANGEVIN TEMPERATURE   310
Info: LANGEVIN DAMPING COEFFICIENT IS 1 INVERSE PS
Info: LANGEVIN DYNAMICS NOT APPLIED TO HYDROGENS
Info: USING VERLET I (r-RESPA) MTS SCHEME.
Info: C1 SPLITTING OF LONG RANGE ELECTROSTATICS
Info: PLACING ATOMS IN PATCHES BY HYDROGEN GROUPS
Info: RIGID BONDS TO HYDROGEN : ALL
Info:         ERROR TOLERANCE : 1e-08
Info:          MAX ITERATIONS : 100
Info: RIGID WATER USING SETTLE ALGORITHM
Info: RANDOM NUMBER SEED     1318887523
Info: USE HYDROGEN BONDS?    NO
Info: COORDINATE PDB         ../common/example-output/ubq.pdb
Info: STRUCTURE FILE         ../common/example-output/ubq.psf
Info: PARAMETER file: CHARMM format!
Info: PARAMETERS             ../common/par_all27_prot_lipid.inp
Info: USING ARITHMETIC MEAN TO COMBINE L-J SIGMA PARAMETERS
Info: SUMMARY OF PARAMETERS:
Info: 180 BONDS
Info: 447 ANGLES
Info: 566 DIHEDRAL
Info: 46 IMPROPER
Info: 6 CROSSTERM
Info: 119 VDW
Info: 0 VDW_PAIRS
Info: 0 NBTHOLE_PAIRS
Info: STRUCTURE SUMMARY:
Info: 1231 ATOMS
Info: 1237 BONDS
Info: 2257 ANGLES
Info: 3293 DIHEDRALS
Info: 204 IMPROPERS
Info: 74 CROSSTERMS
Info: 0 EXCLUSIONS
Info: 629 RIGID BONDS
Info: 3064 DEGREES OF FREEDOM
Info: 602 HYDROGEN GROUPS
Info: 4 ATOMS IN LARGEST HYDROGEN GROUP
Info: 602 MIGRATION GROUPS
Info: 4 ATOMS IN LARGEST MIGRATION GROUP
Info: TOTAL MASS = 8564.87 amu
Info: TOTAL CHARGE = 1.00955e-06 e
Info: REMOVING COM VELOCITY -0.0947456 0.0958233 -0.25649
Info: NONBONDED TABLE R-SQUARED SPACING: 0.0625
Info: NONBONDED TABLE SIZE: 769 POINTS
TCL: Minimizing for 100 steps
ETITLE: TS BOND ANGLE DIHED IMPRP ELECT VDW BOUNDARY MISC KINETIC TOTAL TEMP POTENTIAL TOTAL3 TEMPAVG
ENERGY: 0 278.2636 847.8757 263.8635 10.7301 -3011.0644 561.9394 0.0000 0.0000 0.0000 -1048.3921 0.0000 -1048.3921 -1048.3921 0.0000
ENERGY: 20 163.3316 659.2537 261.4895 10.7539 -3008.8340 -109.9044 0.0000 0.0000 0.0000 -2023.9098 0.0000 -2023.9098 -2023.9098 0.0000
ENERGY: 40 57.2240 425.9844 263.0751 8.2778 -3031.4722 -222.6082 0.0000 0.0000 0.0000 -2499.5191 0.0000 -2499.5191 -2499.5191 0.0000
ENERGY: 60 55.4465 266.8746 263.8750 9.0253 -3057.7437 -297.0861 0.0000 0.0000 0.0000 -2759.6084 0.0000 -2759.6084 -2759.6084 0.0000
ENERGY: 80 52.4746 216.6867 257.7009 5.5974 -3070.7813 -332.2365 0.0000 0.0000 0.0000 -2870.5581 0.0000 -2870.5581 -2870.5581 0.0000
ENERGY: 100 60.4262 199.3960 255.3844 5.4211 -3084.2064 -360.8694 0.0000 0.0000 0.0000 -2924.4481 0.0000 -2924.4481 -2924.4481 0.0000
TCL: Running for 2500 steps
ETITLE: TS BOND ANGLE DIHED IMPRP ELECT VDW BOUNDARY MISC KINETIC TOTAL TEMP POTENTIAL TOTAL3 TEMPAVG
ENERGY: 100 56.4714 199.6193 255.3653 5.4142 -3080.1612 -359.9208 0.0000 0.0000 949.4709 -1973.7408 311.8769 -2923.2117 -1974.8051 311.8769
ENERGY: 600 200.8610 553.9418 272.3799 28.1195 -3127.0017 -333.5267 0.0000 0.0000 723.7499 -1681.4762 237.7334 -2405.2261 -1674.6937 229.5062
ENERGY: 1100 222.5294 602.0338 291.4011 29.9745 -3110.1802 -335.1192 0.0000 0.0000 798.0757 -1501.2850 262.1475 -2299.3607 -1493.0336 258.8599
ENERGY: 1600 230.7931 663.2303 293.7450 28.5814 -3126.7541 -322.1697 0.0000 0.0000 862.3261 -1370.2481 283.2521 -2232.5742 -1359.6758 280.7793
ENERGY: 2100 244.6386 654.2914 293.8027 48.5770 -3100.1204 -312.7777 0.0000 0.0000 876.4629 -1295.1255 287.8957 -2171.5884 -1284.9711 291.0145
ENERGY: 2600 244.8766 701.1822 287.6907 33.2073 -3135.5173 -309.0629 0.0000 0.0000 933.0311 -1244.5922 306.4769 -2177.6234 -1232.3224 300.0832
