Info: SIMULATION PARAMETERS:
Info: TIMESTEP               1
Info: NUMBER OF STEPS        700
Info: STEPS PER CYCLE        10
Info: FIRST LDB TIMESTEP     50
Info: HOM BACKGROUND SCALING 1
Info: MAX SELF PARTITIONS    50
Info: MAX PAIR PARTITIONS    20
Info: SELF PARTITION ATOMS   125
Info: PAIR PARTITION ATOMS   200
Info: PAIR2 PARTITION ATOMS  400
Info: MIN ATOMS PER PATCH    100
Info: INITIAL TEMPERATURE    0
Info: CENTER OF MASS MOVING INITIALLY? NO
Info: DIELECTRIC             1
Info: EXCLUDE                SCALED ONE-FOUR
Info: 1-4 SCALE FACTOR       1
Info: NO DCD TRAJECTORY OUTPUT
Info: XST FILENAME           quench0.2.xst
Info: XST FREQUENCY          100
Info: NO VELOCITY DCD OUTPUT
Info: OUTPUT FILENAME        quench0.2
Info: RESTART FILENAME       quench0.2.restart
Info: RESTART FREQUENCY      100
Info: BINARY RESTART FILES WILL BE USED
Info: SWITCHING ACTIVE
Info: SWITCHING ON           10
Info: SWITCHING OFF          12
Info: PAIRLIST DISTANCE      13.5
Info: PAIRLIST SHRINK RATE   0.01
Info: PAIRLIST GROW RATE     0.01
Info: PAIRLIST TRIGGER       0.3
Info: PAIRLISTS PER CYCLE    2
Info: PAIRLISTS ENABLED
Info: MARGIN                 0
Info: HYDROGEN GROUP CUTOFF  2.5
Info: PATCH DIMENSION        16
Info: CROSSTERM ENERGY INCLUDED IN DIHEDRAL
Info: TIMING OUTPUT STEPS    50
Info: USING VERLET I (r-RESPA) MTS SCHEME.
Info: C1 SPLITTING OF LONG RANGE ELECTROSTATICS
Info: PLACING ATOMS IN PATCHES BY HYDROGEN GROUPS
Info: RANDOM NUMBER SEED     1192661678
Info: USE HYDROGEN BONDS?    NO
Info: COORDINATE PDB         ../common/ubiquitin.pdb
Info: STRUCTURE FILE         ../common/ubiquitin.psf
Info: PARAMETER file: CHARMM format!
Info: PARAMETERS             ../common/par_all27_prot_lipid.inp
Info: USING ARITHMETIC MEAN TO COMBINE L-J SIGMA PARAMETERS
Info: BINARY COORDINATES     ../02_quencha/quench0.2.restart.coor
Info: FIRST TIMESTEP         700
Info: SUMMARY OF PARAMETERS:
Info: 180 BONDS
Info: 447 ANGLES
Info: 566 DIHEDRAL
Info: 46 IMPROPER
Info: 6 CROSSTERM
Info: 119 VDW
Info: 0 VDW_PAIRS
Info: STRUCTURE SUMMARY:
Info: 1231 ATOMS
Info: 1237 BONDS
Info: 2257 ANGLES
Info: 3293 DIHEDRALS
Info: 204 IMPROPERS
Info: 74 CROSSTERMS
Info: 0 EXCLUSIONS
Info: 3690 DEGREES OF FREEDOM
Info: 602 HYDROGEN GROUPS
Info: TOTAL MASS = 8564.87 amu
Info: TOTAL CHARGE = 1.0021e-06 e
Info: REMOVING COM VELOCITY 0 0 0
Info: NONBONDED TABLE R-SQUARED SPACING: 0.0625
Info: NONBONDED TABLE SIZE: 769 POINTS
TCL: Running for 600 steps
ETITLE: TS BOND ANGLE DIHED IMPRP ELECT VDW BOUNDARY MISC KINETIC TOTAL TEMP TOTAL2 TOTAL3 TEMPAVG
ENERGY: 700 244.5605 475.2069 322.9125 27.8291 -2672.5021 -254.1423 0.0000 0.0000 0.0000 -1856.1356 0.0000 -1852.0485 -1852.0485 0.0000
ENERGY: 820 144.6008 348.5044 289.7215 16.6275 -2711.9814 -253.3688 0.0000 0.0000 302.3143 -1863.5816 82.4561 -1861.9503 -1860.2157 82.4561
ENERGY: 940 160.8555 349.6506 289.6741 20.2367 -2701.1182 -275.8339 0.0000 0.0000 294.7051 -1861.8301 80.3807 -1859.6721 -1860.1182 80.3807
ENERGY: 1060 157.9731 363.0125 290.4231 19.6479 -2739.6766 -254.5597 0.0000 0.0000 300.6468 -1862.5328 82.0013 -1860.5948 -1860.2711 82.0013
ENERGY: 1180 140.4246 359.3027 295.5803 20.9608 -2726.6994 -247.5463 0.0000 0.0000 294.9128 -1863.0646 80.4373 -1861.2960 -1860.2652 80.4373
ENERGY: 1300 157.8005 377.5930 298.8369 20.7499 -2735.3681 -263.2005 0.0000 0.0000 281.6384 -1861.9498 76.8168 -1859.8084 -1860.2148 76.8168
