Info: SIMULATION PARAMETERS:
Info: TIMESTEP               2
Info: NUMBER OF STEPS        0
Info: STEPS PER CYCLE        10
Info: PERIODIC CELL BASIS 1  42 0 0
Info: PERIODIC CELL BASIS 2  0 44 0
Info: PERIODIC CELL BASIS 3  0 0 47
Info: PERIODIC CELL CENTER   31 29 17.5
Info: WRAPPING ALL CLUSTERS AROUND PERIODIC BOUNDARIES ON OUTPUT.
Info: FIRST LDB TIMESTEP     50
Info: LAST LDB TIMESTEP     -1
Info: HOM BACKGROUND SCALING 1
Info: PME BACKGROUND SCALING 1
Info: MIN ATOMS PER PATCH    40
Info: INITIAL TEMPERATURE    310
Info: CENTER OF MASS MOVING INITIALLY? NO
Info: DIELECTRIC             1
Info: EXCLUDE                SCALED ONE-FOUR
Info: 1-4 ELECTROSTATICS SCALED BY 1
Info: MODIFIED 1-4 VDW PARAMETERS WILL BE USED
Info: DCD FILENAME           ubq_wb_eq.dcd
Info: DCD FREQUENCY          250
Info: DCD FIRST STEP         250
Info: DCD FILE WILL CONTAIN UNIT CELL DATA
Info: XST FILENAME           ubq_wb_eq.xst
Info: XST FREQUENCY          250
Info: NO VELOCITY DCD OUTPUT
Info: NO FORCE DCD OUTPUT
Info: OUTPUT FILENAME        ubq_wb_eq
Info: BINARY OUTPUT FILES WILL BE USED
Info: RESTART FILENAME       ubq_wb_eq.restart
Info: RESTART FREQUENCY      500
Info: BINARY RESTART FILES WILL BE USED
Info: SWITCHING ACTIVE
Info: SWITCHING ON           10
Info: SWITCHING OFF          12
Info: PAIRLIST DISTANCE      14
Info: PAIRLIST SHRINK RATE   0.01
Info: PAIRLIST GROW RATE     0.01
Info: PAIRLIST TRIGGER       0.3
Info: PAIRLISTS PER CYCLE    2
Info: PAIRLISTS ENABLED
Info: MARGIN                 0.495
Info: HYDROGEN GROUP CUTOFF  2.5
Info: PATCH DIMENSION        16.995
Info: ENERGY OUTPUT STEPS    100
Info: CROSSTERM ENERGY INCLUDED IN DIHEDRAL
Info: TIMING OUTPUT STEPS    1000
Info: PRESSURE OUTPUT STEPS  100
Info: LANGEVIN DYNAMICS ACTIVE
Info: LANGEVIN TEMPERATURE   310
Info: LANGEVIN DAMPING COEFFICIENT IS 1 INVERSE PS
Info: LANGEVIN DYNAMICS NOT APPLIED TO HYDROGENS
Info: LANGEVIN PISTON PRESSURE CONTROL ACTIVE
Info:        TARGET PRESSURE IS 1.01325 BAR
Info:     OSCILLATION PERIOD IS 100 FS
Info:             DECAY TIME IS 50 FS
Info:     PISTON TEMPERATURE IS 310 K
Info:       PRESSURE CONTROL IS GROUP-BASED
Info:    INITIAL STRAIN RATE IS 0 0 0
Info:       CELL FLUCTUATION IS ISOTROPIC
Info: PARTICLE MESH EWALD (PME) ACTIVE
Info: PME TOLERANCE               1e-06
Info: PME EWALD COEFFICIENT       0.257952
Info: PME INTERPOLATION ORDER     4
Info: PME GRID DIMENSIONS         44 44 48
Info: PME MAXIMUM GRID SPACING    1
Info: FULL ELECTROSTATIC EVALUATION FREQUENCY      2
Info: USING VERLET I (r-RESPA) MTS SCHEME.
Info: C1 SPLITTING OF LONG RANGE ELECTROSTATICS
Info: PLACING ATOMS IN PATCHES BY HYDROGEN GROUPS
Info: RIGID BONDS TO HYDROGEN : ALL
Info:         ERROR TOLERANCE : 1e-08
Info:          MAX ITERATIONS : 100
Info: RIGID WATER USING SETTLE ALGORITHM
Info: RANDOM NUMBER SEED     1304616803
Info: USE HYDROGEN BONDS?    NO
Info: COORDINATE PDB         ../common/ubq_wb.pdb
Info: STRUCTURE FILE         ../common/ubq_wb.psf
Info: PARAMETER file: CHARMM format!
Info: PARAMETERS             ../common/par_all27_prot_lipid.inp
Info: USING ARITHMETIC MEAN TO COMBINE L-J SIGMA PARAMETERS
Info: SUMMARY OF PARAMETERS:
Info: 180 BONDS
Info: 447 ANGLES
Info: 566 DIHEDRAL
Info: 46 IMPROPER
Info: 6 CROSSTERM
Info: 119 VDW
Info: 0 VDW_PAIRS
Info: STRUCTURE SUMMARY:
Info: 7051 ATOMS
Info: 5117 BONDS
Info: 4197 ANGLES
Info: 3293 DIHEDRALS
Info: 204 IMPROPERS
Info: 74 CROSSTERMS
Info: 0 EXCLUSIONS
Info: 6449 RIGID BONDS
Info: 14704 DEGREES OF FREEDOM
Info: 2542 HYDROGEN GROUPS
Info: 4 ATOMS IN LARGEST HYDROGEN GROUP
Info: 2542 MIGRATION GROUPS
Info: 4 ATOMS IN LARGEST MIGRATION GROUP
Info: TOTAL MASS = 43514.7 amu
Info: TOTAL CHARGE = 1.00955e-06 e
Info: MASS DENSITY = 0.831947 g/cm^3
Info: ATOM DENSITY = 0.0811803 atoms/A^3
Info: REMOVING COM VELOCITY 0.0513823 0.0572043 0.128563
Info: NONBONDED TABLE R-SQUARED SPACING: 0.0625
Info: NONBONDED TABLE SIZE: 769 POINTS
TCL: Minimizing for 100 steps
ETITLE: TS BOND ANGLE DIHED IMPRP ELECT VDW BOUNDARY MISC KINETIC TOTAL TEMP POTENTIAL TOTAL3 TEMPAVG PRESSURE GPRESSURE VOLUME PRESSAVG GPRESSAVG
ENERGY: 0 2060.4925 1271.6255 263.8635 10.7301 -19408.9902 2463.6381 0.0000 0.0000 0.0000 -13338.6406 0.0000 -13338.6406 -13338.6406 0.0000 -311.4071 3996.8932 86856.0000 -311.4071 3996.8932
ENERGY: 20 722.9472 953.9062 261.1333 12.6535 -19802.0245 1275.6019 0.0000 0.0000 0.0000 -16575.7824 0.0000 -16575.7824 -16575.7824 0.0000 -2002.7964 -697.8497 86856.0000 -2002.7964 -697.8497
ENERGY: 40 583.0718 779.9979 262.9336 8.3134 -20447.0827 1107.8449 0.0000 0.0000 0.0000 -17704.9211 0.0000 -17704.9211 -17704.9211 0.0000 -2324.2029 -1838.9528 86856.0000 -2324.2029 -1838.9528
ENERGY: 60 548.2498 1007.0674 268.7882 31.4929 -22072.7329 927.0333 0.0000 0.0000 0.0000 -19290.1013 0.0000 -19290.1013 -19290.1013 0.0000 -2998.4916 -4285.2072 86856.0000 -2998.4916 -4285.2072
ENERGY: 80 631.7285 609.7676 266.3009 12.2949 -22909.4999 881.3266 0.0000 0.0000 0.0000 -20508.0815 0.0000 -20508.0815 -20508.0815 0.0000 -5737.6792 -5009.5308 86856.0000 -5737.6792 -5009.5308
ENERGY: 100 605.1437 733.6868 263.5997 11.0217 -23673.7631 915.4026 0.0000 0.0000 0.0000 -21144.9086 0.0000 -21144.9086 -21144.9086 0.0000 -5571.7963 -6119.2600 86856.0000 -5571.7963 -6119.2600
TCL: Running for 2500 steps
ETITLE: TS BOND ANGLE DIHED IMPRP ELECT VDW BOUNDARY MISC KINETIC TOTAL TEMP POTENTIAL TOTAL3 TEMPAVG PRESSURE GPRESSURE VOLUME PRESSAVG GPRESSAVG
ENERGY: 100 81.9360 262.9427 263.6823 10.9727 -21774.1928 893.5803 0.0000 0.0000 4500.6962 -15760.3825 308.0595 -20261.0787 -15770.7326 308.0595 -3413.5938 -3381.9607 86856.0000 -3413.5938 -3381.9607
ENERGY: 600 201.5832 608.3563 330.3534 38.4779 -23485.0692 1617.3809 0.0000 0.0000 4683.9683 -16004.9492 320.6039 -20688.9175 -15991.3821 315.7612 650.5298 669.9739 72056.6305 15.5268 14.7961
ENERGY: 1100 213.2246 690.8250 313.5550 35.5213 -23516.6232 1430.0675 0.0000 0.0000 4653.6066 -16179.8231 318.5258 -20833.4297 -16162.2058 316.8209 -218.5882 -188.9113 70491.2191 -6.3048 -6.0781
ENERGY: 1600 223.3705 695.0056 312.9399 42.0924 -23567.5884 1429.9731 0.0000 0.0000 4620.7585 -16243.4483 316.2774 -20864.2068 -16224.7478 318.5743 265.8234 287.9026 69273.7403 -4.4477 -4.7952
ENERGY: 2100 240.5386 695.5115 330.9787 43.2536 -23851.3357 1526.9880 0.0000 0.0000 4617.9819 -16396.0834 316.0874 -21014.0653 -16383.1673 318.2453 659.6330 677.4973 68933.2412 17.8365 18.1759
ENERGY: 2600 228.8007 675.9747 297.3513 36.4692 -23736.5068 1455.9869 0.0000 0.0000 4627.8929 -16414.0312 316.7657 -21041.9241 -16393.3497 317.1373 -90.2939 -68.2579 69359.5872 31.1722 30.1310
